psse/psse-model/src/test/resources/IEEE_14_bus_completed_rev35.rawx
{
     "network":{
         "caseid":{
             "fields":["ic", "sbase", "rev", "xfrrat", "nxfrat", "basfrq", "title1", "title2"],
             "data":[0, 100.00, 35, 0, 0, 60.00,
                     " 08/19/93 UW ARCHIVE           100.0  1962 W IEEE 14 Bus Test Case", ""]
         },
         "bus":{
             "fields":["ibus", "name", "baskv", "ide", "area", "zone", "owner", "vm", "va"],
             "data":[
                 [1, "Bus 1       ", 138.0000, 3, 1, 1, 1, 1.06000, 0.0000],
                 [2, "Bus 2       ", 138.0000, 2, 1, 1, 1, 1.04500, -4.9826],
                 [3, "Bus 3       ", 138.0000, 2, 1, 1, 1, 1.01000, -12.7250],
                 [4, "Bus 4       ", 138.0000, 1, 1, 1, 1, 1.01767, -10.3128],
                 [5, "Bus 5       ", 138.0000, 1, 1, 1, 1, 1.01951, -8.7738],
                 [6, "Bus 6       ", 138.0000, 2, 1, 1, 1, 1.07000, -14.2209],
                 [7, "Bus 7       ", 138.0000, 1, 1, 1, 1, 1.06152, -13.3596],
                 [8, "Bus 8       ", 138.0000, 2, 1, 1, 1, 1.09000, -13.3596],
                 [9, "Bus 9       ", 138.0000, 1, 1, 1, 1, 1.05593, -14.9385],
                 [10, "Bus 10      ", 138.0000, 1, 1, 1, 1, 1.05099, -15.0972],
                 [11, "Bus 11      ", 138.0000, 1, 1, 1, 1, 1.05691, -14.7906],
                 [12, "Bus 12      ", 138.0000, 1, 1, 1, 1, 1.05519, -15.0755],
                 [13, "Bus 13      ", 138.0000, 1, 1, 1, 1, 1.05038, -15.1562],
                 [14, "Bus 14      ", 138.0000, 1, 1, 1, 1, 1.03553, -16.0336]
             ]
         },
         "load":{
             "fields":["ibus", "loadid", "stat", "area", "zone", "pl", "ql", "ip", "iq", "yp", "yq", "owner", "scale"],
             "data":[
                 [2, "1 ", 1, 1, 1, 21.700, 12.700, 0.000, 0.000, 0.000, -0.000, 1, 1],
                 [3, "1 ", 1, 1, 1, 94.200, 19.000, 0.000, 0.000, 0.000, -0.000, 1, 1],
                 [4, "1 ", 1, 1, 1, 47.800, -3.900, 0.000, 0.000, 0.000, -0.000, 1, 1],
                 [5, "1 ", 1, 1, 1, 7.600, 1.600, 0.000, 0.000, 0.000, -0.000, 1, 1],
                 [6, "1 ", 1, 1, 1, 11.200, 7.500, 0.000, 0.000, 0.000, -0.000, 1, 1],
                 [9, "1 ", 1, 1, 1, 29.500, 16.600, 0.000, 0.000, 0.000, -0.000, 1, 1],
                 [10, "1 ", 1, 1, 1, 9.000, 5.800, 0.000, 0.000, 0.000, -0.000, 1, 1],
                 [11, "1 ", 1, 1, 1, 3.500, 1.800, 0.000, 0.000, 0.000, -0.000, 1, 1],
                 [12, "1 ", 1, 1, 1, 6.100, 1.600, 0.000, 0.000, 0.000, -0.000, 1, 1],
                 [13, "1 ", 1, 1, 1, 13.500, 5.800, 0.000, 0.000, 0.000, -0.000, 1, 1],
                 [14, "1 ", 1, 1, 1, 14.900, 5.000, 0.000, 0.000, 0.000, -0.000, 1, 1]
             ]
         },
         "fixshunt":{
             "fields":["ibus", "shntid", "stat", "gl", "bl"],
             "data":[
                 [9, " 1", 1, 0.000, 19.000]
             ]
         },
         "generator":{
             "fields":["ibus", "machid", "pg", "qg", "qt", "qb", "vs", "ireg", "mbase", "zr", "zx", "rt", "xt", "gtap", "stat",
                       "rmpct", "pt", "pb", "o1", "f1", "o2", "f2", "o3", "f3", "o4", "f4", "wmod", "wpf"],
             "data":[
                 [1, "1 ", 232.392, -16.549, 0.000, 0.000, 1.06000, 0, 615.000, 0.00000, 1.00000, 0.00000, 0.00000, 1.00000, 1,
                  100.0, 10000.000, -10000.000, 1, 1.0000, 0, 1.0000, 0, 1.0000, 0, 1.0000, 0, 1.0000],
                 [2, "1 ", 40.000, 43.556, 50.000, -40.000, 1.04500, 0, 60.000, 0.00000, 1.00000, 0.00000, 0.00000, 1.00000, 1,  
                  100.0, 10000.000, -10000.000, 1, 1.0000, 0, 1.0000, 0, 1.0000, 0, 1.0000, 0, 1.0000],
                 [3, "1 ", 0.000, 25.075, 40.000, 0.000, 1.01000, 0, 60.000, 0.00000, 1.00000, 0.00000, 0.00000, 1.00000, 1,  
                  100.0, 10000.000, -10000.000, 1, 1.0000, 0, 1.0000, 0, 1.0000, 0, 1.0000,0, 1.0000],
                 [6, "1 ", 0.000, 12.730, 24.000, -6.000, 1.07000, 0, 25.000, 0.00000, 1.00000, 0.00000, 0.00000, 1.00000, 1,  
                  100.0, 10000.000, -10000.000, 1, 1.0000, 0, 1.0000, 0, 1.0000, 0, 1.0000,0, 1.0000],
                 [8, "1 ", 0.000, 17.623, 24.000, -6.000, 1.09000, 0, 25.000, 0.00000, 1.00000, 0.00000, 0.00000, 1.00000, 1,  
                  100.0, 10000.000, -10000.000, 1, 1.0000, 0, 1.0000, 0, 1.0000, 0, 1.0000, 0, 1.0000]
             ]
         },
         "acline":{
             "fields":["ibus", "jbus", "ckt", "rpu", "xpu", "bpu", "rate1", "rate2", "rate3", "gi", "bi", "gj", "bj", "stat",
                       "met", "len", "o1", "f1", "o2", "f2", "o3", "f3", "o4", "f4"],
             "data":[
                 [1, 2, "1 ", 0.01938, 0.05917, 0.05280, 0.00, 0.00, 0.00, 0.00000, 0.00000, 0.00000, 0.00000, 1,
                  1, 0.0, 1, 1.0000, 0, 1.0000, 0, 1.0000, 0, 1.0000],
                 [1, 5, "1 ", 0.05403, 0.22304, 0.04920, 0.00, 0.00, 0.00, 0.00000, 0.00000, 0.00000, 0.00000, 1,
                  1, 0.0, 1, 1.0000, 0, 1.0000, 0, 1.0000, 0, 1.0000],
                 [2, 3, "1 ", 0.04699, 0.19797, 0.04380, 0.00, 0.00, 0.00, 0.00000, 0.00000, 0.00000, 0.00000, 1,
                  1, 0.0, 1, 1.0000, 0, 1.0000, 0, 1.0000, 0, 1.0000],
                 [2, 4, "1 ", 0.05811, 0.17632, 0.03400, 0.00, 0.00, 0.00, 0.00000, 0.00000, 0.00000, 0.00000, 1,
                  1, 0.0, 1, 1.0000, 0, 1.0000, 0, 1.0000, 0, 1.0000],
                 [2, 5, "1 ", 0.05695, 0.17388, 0.03460, 0.00, 0.00, 0.00, 0.00000, 0.00000, 0.00000, 0.00000, 1,
                  1, 0.0, 1, 1.0000, 0, 1.0000, 0, 1.0000, 0, 1.0000],
                 [3, 4, "1 ", 0.06701, 0.17103, 0.01280, 0.00, 0.00, 0.00, 0.00000, 0.00000, 0.00000, 0.00000, 1,
                  1, 0.0, 1, 1.0000, 0, 1.0000, 0, 1.0000, 0, 1.0000],
                 [4, 5, "1 ", 0.01335, 0.04211, 0.00000, 0.00, 0.00, 0.00, 0.00000, 0.00000, 0.00000, 0.00000, 1,
                  1, 0.0, 1, 1.0000, 0, 1.0000, 0, 1.0000, 0, 1.0000],
                 [6, 11, "1 ", 0.09498, 0.19890, 0.00000, 0.00, 0.00, 0.00, 0.00000, 0.00000, 0.00000, 0.00000, 1,
                  1, 0.0, 1, 1.0000, 0, 1.0000, 0, 1.0000, 0, 1.0000],
                 [6, 12, "1 ", 0.12291, 0.25581, 0.00000, 0.00, 0.00, 0.00, 0.00000, 0.00000, 0.00000, 0.00000, 1,
                  1, 0.0, 1, 1.0000, 0, 1.0000, 0, 1.0000, 0, 1.0000],
                 [6, 13, "1 ", 0.06615, 0.13027, 0.00000, 0.00, 0.00, 0.00, 0.00000, 0.00000, 0.00000, 0.00000, 1,
                  1, 0.0, 1, 1.0000, 0, 1.0000, 0, 1.0000, 0, 1.0000],
                 [7, 8, "1 ", 0.00000, 0.17615, 0.00000, 0.00, 0.00, 0.00, 0.00000, 0.00000, 0.00000, 0.00000, 1,
                  1, 0.0, 1, 1.0000, 0, 1.0000, 0, 1.0000, 0, 1.0000],
                 [7, 9, "1 ", 0.00000, 0.11001, 0.00000, 0.00, 0.00, 0.00, 0.00000, 0.00000, 0.00000, 0.00000, 1,
                  1, 0.0, 1, 1.0000, 0, 1.0000, 0, 1.0000, 0, 1.0000],
                 [9, 10, "1 ", 0.03181, 0.08450, 0.00000, 0.00, 0.00, 0.00, 0.00000, 0.00000, 0.00000, 0.00000, 1,
                  1, 0.0, 1, 1.0000, 0, 1.0000, 0, 1.0000, 0, 1.0000],
                 [9, 14, "1 ", 0.12711, 0.27038, 0.00000, 0.00, 0.00, 0.00, 0.00000, 0.00000, 0.00000, 0.00000, 1,
                  1, 0.0, 1, 1.0000, 0, 1.0000, 0, 1.0000, 0, 1.0000],
                 [10, 11, "1 ", 0.08205, 0.19207, 0.00000, 0.00, 0.00, 0.00, 0.00000, 0.00000, 0.00000, 0.00000, 1,
                  1, 0.0, 1, 1.0000, 0, 1.0000, 0, 1.0000, 0, 1.0000],
                 [12, 13, "1 ", 0.22092, 0.19988, 0.00000, 0.00, 0.00, 0.00, 0.00000, 0.00000, 0.00000, 0.00000, 1,
                  1, 0.0, 1, 1.0000, 0, 1.0000, 0, 1.0000, 0, 1.0000],
                 [13, 14, "1 ", 0.17093, 0.34802, 0.00000, 0.00, 0.00, 0.00, 0.00000, 0.00000, 0.00000, 0.00000, 1,
                  1, 0.0, 1, 1.0000, 0, 1.0000, 0, 1.0000, 0, 1.0000]
             ]
         },
         "transformer":{
             "fields":["ibus", "jbus", "kbus", "ckt", "cw", "cz", "cm", "mag1", "mag2", "nmet", "name", "stat", "o1", "f1", "o2", "f2", "o3", "f3", "o4", "f4",
                       "r1_2", "x1_2", "sbase1_2",
                       "windv1", "nomv1", "ang1", "wdg1rate1", "wdg1rate2", "wdg1rate3", "cod1", "cont1", "rma1", "rmi1", "vma1", "vmi1", "ntp1", "tab1", "cr1", "cx1",
                       "windv2", "nomv2"],
             "data":[
                 [4, 7, 0, "1 ", 1, 1, 1, 0.00000, 0.00000, 2, "        ", 1, 1, 1.0000, 0, 1.0000, 0, 1.0000, 0, 1.0000,
                  0.00000, 0.20912, 100.00,
                  0.97800, 0.000, 0.000, 0.00, 0.00, 0.00, 0, 0, 1.50000, 0.51000, 1.50000, 0.51000, 159, 0, 0.00000, 0.00000,
                  1.00000, 0.000],
                 [4, 9, 0, "1 ", 1, 1, 1, 0.00000, 0.00000, 2, "        ", 1, 1, 1.0000, 0, 1.0000, 0, 1.0000, 0, 1.0000,
                  0.00000, 0.55618, 100.00,
                  0.96900, 0.000, 0.000, 0.00, 0.00, 0.00, 0, 0, 1.50000, 0.51000, 1.50000, 0.51000, 159, 0, 0.00000, 0.00000,
                  1.00000, 0.000],
                 [5, 6, 0, "1 ", 1, 1, 1, 0.00000, 0.00000, 2, "        ", 1, 1, 1.0000, 0, 1.0000, 0, 1.0000, 0, 1.0000,
                  0.00000, 0.25202, 100.00,
                  0.93200, 0.000, 0.000, 0.00, 0.00, 0.00, 0, 0, 1.50000, 0.51000, 1.50000, 0.51000, 159, 0, 0.00000, 0.00000,
                  1.00000,  0.000]
             ]
         },
         "area":{
             "fields":["iarea", "isw", "pdes", "ptol", "arname"],
             "data":[
                 [1, 2, 0.000, 999.990, "IEEE14      "]
             ]
         },
         "twotermdc":{
             "fields":["name", "mdc", "rdc", "setvl", "vschd", "vcmod", "rcomp", "delti", "met", "dcvmin", "cccitmx", "cccacc",
                       "ipr", "nbr", "anmxr", "anmnr", "rcr", "xcr", "ebasr", "trr", "tapr", "tmxr","tmnr", "stpr", "icr", "ndr", "ifr", "itr", "idr", "xcapr", 
                       "ipi", "nbi", "anmxi", "anmni", "rci", "xci", "ebasi", "tri", "tapi", "tmxi", "tmni", "stpi", "ici", "ndi", "ifi", "iti", "idi", "xcapi"],
             "data":[
                 ["EATL P1     ",0,    7.3650,      0.00,    500.00,      0.00,    7.3650,   0.10000,"R",      0.00,  50,   1.00000,
                  10, 1,17.30,12.70, 0.4800,21.3200, 500.0,0.83200,1.10000,1.20000,0.97500,0.01250,     0,     0, 0,     0,"1 ", 0.0000,
                  12, 1,20.50,18.00, 0.4800,21.3200, 240.0,1.73250,1.14190,1.20640,0.89680,0.01290,     0,     0, 0,     0,"1 ", 0.0000],
                 ["WATL P1     ",1,    5.1250,    280.00,    500.00,      0.00,    5.1250,   0.10000,"R",      0.00,  20,   1.00000,
                  12, 1,17.30,12.70, 0.4400,21.3200, 500.0,0.83200,1.12500,1.20000,0.97500,0.01250,     0,     0, 0,     0,"1 ", 0.0000,
                  14, 1,20.50,17.90, 0.4400,21.3200, 240.0,1.73250,1.10320,1.20640,0.89680,0.01290,     0,     0, 0,     0,"1 ", 0.0000]
              ]
         },
         "vscdc":{
             "fields":["name", "mdc", "rdc", "o1", "f1", "o2", "f2", "o3", "f3", "o4", "f4",
                       "ibus1", "type1", "mode1", "dcset1", "acset1", "aloss1", "bloss1","minloss1", "smax1", "imax1", "pwf1", "maxq1", "minq1", "vsreg1", "nreg1", "rmpct1", 
                       "ibus2", "type2", "mode2", "dcset2", "acset2", "aloss2", "bloss2", "minloss2", "smax2", "imax2", "pwf2","maxq2", "minq2", "vsreg2", "nreg2", "rmpct2"],
            "data":[
                ["VDCLINE1", 1, 0.710, 1, 0.3204, 2, 0.3883, 3, 0.1942, 4, 0.0971,
                    7, 2, 2, -209.0, 0.950, 100.0, 0.1,   50.0, 400.0, 1200.0, 0.1, 100.00, -110.00, 7, 0, 100.0, 
                    9, 1, 1,  100.0, 0.99,   90.0, 0.150, 40.0, 350.0, 1200.0, 0.15, 150.0, -140.0,  9, 0, 100.0],
                ["VDCLINE2", 1, 0.35, 1, 0.3705, 2, 0.3597, 3, 0.1799, 4, 0.0899,
                   11, 2, 1, -100.0, 1.0, 100.0, 0.15, 123.0, 200.0, 1200.0, 1.0, 200.0, -150.0, 11, 0, 100.0, 
                   13, 1, 1, 100.0, 1.0, 93.0, 0.12, 98.0, 250.0, 1250.0, 1.0, 225.0, -250.0, 13, 0, 99.0]
             ]
         },
         "impcor":{
             "fields":["itable", "tap", "refact", "imfact"],
             "data":[
                 [1, -30.0, 1.100, 0.100],
                 [1, -24.0, 1.091, 0.000],
                 [1,  30.0, 1.110, 0.000],
                 [2,   0.6, 1.060, 0.000],
                 [2,   0.7, 1.070, 0.000],
                 [2,   0.8, 1.080, 0.000],
                 [2,   0.9, 1.090, 0.100]
             ]
         },
         "ntermdc":{
             "fields":["name","nconv","ndcbs","ndcln","mdc","vconv","vcmod","vconvn"],
             "data":[
                 ["MULTERM_DC_1", 4, 5, 4, 1, 212, 400.0, 0]
             ]
         },
         "ntermdcconv":{
             "fields":["name", "ib", "n", "angmx", "angmn", "rc", "xc", "ebas", "tr", "tap", "tpmx", "tpmn", "tstp", "setvl", "dcpf", "marg", "cnvcod"],
             "data":[
                 ["MULTERM_DC_1", 20, 4, 10.0, 8.0, 0.0, 19.0, 500.0, 0.22, 1.01, 1.1, 0.97, 0.01, 321.0, 1.0, 0.15, 3],
                 ["MULTERM_DC_1", 21, 4, 10.0, 8.0, 0.0, 19.0, 500.0, 0.22, 1.01, 1.1, 0.97, 0.01, 321.0, 1.0, 0.15, 3],
                 ["MULTERM_DC_1", 22, 4, 10.0, 8.0, 0.0, 19.0, 500.0, 0.22, 1.01, 1.1, 0.97, 0.01, 321.0, 1.0, 0.15, 3],
                 ["MULTERM_DC_1", 23, 4, 20.0, 18.0, 0.0, 10.0, 230.0, 0.452, 1.1, 1.1, 0.9, 0.01, -303.8, 1.0, 0.0, 4]
             ]
         },
         "ntermdcbus":{
             "fields":["name","idc","ib","area","zone","dcname","idc2","rgrnd","owner"],
             "data":[
                 ["MULTERM_DC_1", 1, 401, 4, 4, "DC1", 0, 0.0, 4],
                 ["MULTERM_DC_1", 2, 401, 4, 4, "DC2", 0, 0.0, 4],
                 ["MULTERM_DC_1", 3, 401, 4, 4, "DC3", 0, 0.0, 4],
                 ["MULTERM_DC_1", 4, 401, 4, 4, "DC4", 0, 0.0, 4],
                 ["MULTERM_DC_1", 5, 0, 4, 4, "DC5", 0, 0.0, 4]
             ]
         }, 
         "ntermdclink":{
             "fields":["name", "idc", "jdc", "dcckt", "met", "rdc", "ldc"],
             "data":[
                 ["MULTERM_DC_1", 1, 5, "1", 1, 29.0000, 0.00],
                 ["MULTERM_DC_1", 2, 5, "1", 1, 29.0000, 0.00],
                 ["MULTERM_DC_1", 3, 5, "1", 1, 29.0000, 0.00],
                 ["MULTERM_DC_1", 4, 5, "1", 1, 29.0000, 0.00]
             ]
         },
         "msline":{
             "fields":["ibus", "jbus", "mslid", "met", "dum1", "dum2", "dum3", "dum4", "dum5", "dum6", "dum7", "dum8", "dum9"],
             "data":[
                 [1, 2, "&1", 2, 102, 103, 104, null, null, null, null, null, null],
                 [1, 5, "&1", 2, 121, 122, 123, 124, 125, 126, 127, 128, 129]
             ]
         },
         "zone":{
             "fields":["izone", "zoname"],
             "data":[
                 [1, "IEEE 14 "]
             ]
         },
         "iatransfer":{
             "fields":["arfrom", "arto", "trid", "ptran"],
             "data":[
                 [1, 2, "A", 1000.0],
                 [3, 5, "D", 2900.0]
             ]
         },
         "owner":{
             "fields":["iowner", "owname"],
             "data":[
                 [1, "1"]
             ]
         },
         "facts":{
             "fields":["name", "ibus", "jbus", "mode", "pdes", "qdes", "vset", "shmx",
                       "trmx", "vtmn", "vtmx", "vsmx", "imx", "linx", "rmpct", "owner",
                       "set1", "set2", "vsref", "fcreg", "nreg", "mname"],
             "data":[
                 ["FACTS_DVCE_1", 153, 0, 1, 0.0, 0.0, 1.015, 50.0,100.0, 0.9263, 1.134, 1.0, 0.0, 0.05652, 100.0, 1, 0.0, 0.0, 0, 153, 0, ""],
                 ["FACTS_DVCE_2", 153, 155, 1, 350.0, 40.0, 1.015, 25.0, 9999.0, 0.9, 1.1, 1.0, 0.0, 0.05, 100.0, 1, 0.0, 0.0, 0, 153, 0, ""]
             ]
         },
         "gne":{
             "fields":["name", "model", "nterm", "bus1", "bus2", "nreal", "nintg", "nchar", "stat", "owner", "nmet", 
                       "real1", "real2", "real3", "real4", "real5", "real6", "real7", "real8", "real9", "real10",
                       "intg1", "intg2", "intg3", "intg4", "intg5", "intg6", "intg7", "intg8", "intg9", "intg10", 
                       "char1", "char2", "char3", "char4", "char5", "char6", "char7", "char8", "char9", "char10"],
             "data":[
                 ["GNE-1", "boslModel", 1, 153, 0, 3, 3, 3, 1, 1, 153,
                   99.0, 100.0, 101.0, 0.0, 0.0, 0.0, 0.0, 0.0, 0.0, 0.0,
                   153, 154, 155, 0, 0, 0, 0, 0, 0, 0,
                   "A1", "A2", "A3", "1", "1", "1", "1", "1", "1", "1"]
             ]
         }
    }
}